opendss_networks/LV31_15bus/lines.dss
new line.L_176 lineCode=ughv_400al_triplex_ug_4w_bundled bus1=B1835 bus2=B955 length=0.000244629175463 units=km phases=4
new line.L_830 lineCode=ughv_400al_triplex_ug_4w_bundled bus1=B886 bus2=B1835 length=0.000255748683905 units=km phases=4
new line.L_1124 lineCode=ughv_400al_triplex_ug_4w_bundled bus1=B1279 bus2=B1210 length=0.000255748683198 units=km phases=4
new line.L_1503 lineCode=ughv_400al_triplex_ug_4w_bundled bus1=B1279 bus2=B2690 length=0.000245787176985 units=km phases=4
new line.L_2235 lineCode=ughv_400al_triplex_ug_4w_bundled bus1=B1835 bus2=B3156 length=0.000346777684226 units=km phases=4
new line.L_2399 lineCode=ugsc_16cu_xlpe/nyl/pvc_ug_4w_bundled bus1=B3145 bus2=B3156 length=0.0670163362633 units=km phases=4
new line.L_3520 lineCode=ugsc_16cu_xlpe/nyl/pvc_ug_4w_bundled bus1=B2831 bus2=B3156 length=0.0363657190145 units=km phases=4
new line.L_3841 lineCode=ughv_400al_triplex_ug_4w_bundled bus1=B1835 bus2=B1735 length=0.000557898939597 units=km phases=4
new line.L_4197 lineCode=ugsc_16cu_xlpe/nyl/pvc_ug_4w_bundled bus1=B2158 bus2=B1279 length=0.183662766616 units=km phases=4
new line.L_4537 lineCode=ughv_400al_triplex_ug_4w_bundled bus1=B1835 bus2=B200 length=0.000353813975435 units=km phases=4
